#N B3LYP/aug-cc-pVDZ OPT 

2Naph

-1 1 
 7         -3.521782   -2.366594    0.000268
 6         -2.813590   -1.397730    0.000121
 6         -2.002639   -0.179089    0.000115
 6         -2.664906    1.057914    0.000249
 6         -1.927511    2.276490    0.000287
 6         -0.535978    2.242583    0.000141
 6          0.182868    1.002658   -0.000048
 6         -0.541485   -0.263699   -0.000084
 6          0.196207   -1.489983   -0.000549
 6          1.616578   -1.667416   -0.000681
 6          2.246098   -0.321460   -0.000211
 6          1.613651    0.932758   -0.000193
 7          4.929396   -0.268107    0.000378
 6          3.730071   -0.282919    0.000140
 1         -3.762995    1.085736    0.000316
 1         -2.464734    3.232734    0.000416
 1          0.037126    3.181049    0.000172
 1         -0.444024   -2.390556   -0.000929
 1          2.185142    1.873310   -0.000206

