#N B3LYP/aug-cc-pVDZ OPT 

2Naph

-1 1 
 7         -4.528165   -0.876316   -0.000141
 6         -3.350429   -0.645317    0.000079
 6         -0.970092   -1.409650    0.000018
 6         -1.920211   -0.362396    0.000039
 6         -1.464946    0.998792    0.000037
 6         -0.094958    1.279197    0.000007
 6          0.898346    0.204503   -0.000040
 6          0.445408   -1.198842    0.000006
 6          1.311261   -2.410741    0.000051
 6          2.683455   -1.983021    0.000071
 6          3.167772   -0.648515   -0.000063
 6          2.295489    0.450861   -0.000115
 7          0.686877    3.825479    0.000045
 6          0.334503    2.678120    0.000034
 1         -1.325081   -2.451898    0.000043
 1         -2.197466    1.816901    0.000076
 1          3.472757   -2.756881    0.000146
 1          4.252624   -0.450601   -0.000143
 1          2.672599    1.480388   -0.000196

