#N B3LYP/aug-cc-pVDZ OPT 

2Naph

-1 1 
 7          3.590430   -2.094964   -0.000478
 6          2.565148   -1.470520    0.000277
 6          0.077025   -1.416200    0.000157
 6          1.306892   -0.736529    0.000160
 6          1.305926    0.722757    0.000052
 6          0.086737    1.406300   -0.000031
 6         -1.172278    0.709142   -0.000023
 6         -1.205171   -0.762602    0.000069
 6         -2.414644   -1.624170    0.000069
 6         -3.569192   -0.768462   -0.000029
 6         -3.597161    0.656016   -0.000098
 6         -2.417082    1.406109   -0.000101
 7          3.582380    2.099298    0.000043
 6          2.563308    1.465644    0.000047
 1          0.081153   -2.516986    0.000224
 1          0.092865    2.506254   -0.000099
 1         -4.569561   -1.240250   -0.000050
 1         -4.560281    1.192680   -0.000156
 1         -2.430890    2.503063   -0.000164

