#N B3LYP/aug-cc-pVDZ OPT 

2Naph

-1 1 
 7          4.902403    0.303932    0.003089
 6          3.703712    0.238415   -0.001693
 6          1.573926   -1.022155   -0.001315
 6          2.236569    0.218312   -0.001305
 6          1.492807    1.461140   -0.000421
 6          0.076069    1.605426   -0.000123
 6         -0.540096    0.262207   -0.000188
 6          0.144783   -1.028732   -0.000381
 6         -0.617666   -2.253001    0.000264
 6         -2.006371   -2.238320    0.000562
 6         -2.712704   -0.998252    0.000400
 6         -1.993450    0.205388    0.000083
 7         -3.421538    2.461311    0.000270
 6         -2.718729    1.487697    0.000225
 1          2.132841   -1.965821   -0.002205
 1          2.130243    2.363031   -0.000012
 1         -0.079940   -3.212435    0.000486
 1         -2.571939   -3.179422    0.000978
 1         -3.810356   -0.990804    0.000586

