#N B3LYP/aug-cc-pVDZ OPT 

2Naph

-1 1 
 7          3.022451   -1.809015   -0.000155
 6          1.860846   -1.505489   -0.000121
 6          0.411945   -1.291419   -0.000020
 6         -0.380626   -2.455357    0.000026
 6         -1.794424   -2.369702    0.000082
 6         -2.400621   -1.112974    0.000071
 6         -1.670585    0.126630    0.000015
 6         -0.205737    0.028134    0.000002
 6          0.532608    1.271350    0.000009
 6         -0.203679    2.484394   -0.000054
 6         -1.614521    2.505179   -0.000115
 6         -2.496839    1.370047   -0.000032
 7          3.167591    1.569214    0.000186
 6          1.983677    1.365539    0.000103
 1          0.112989   -3.436706    0.000009
 1         -2.393544   -3.288786    0.000121
 1         -3.498241   -1.034596    0.000093
 1          0.373746    3.423409   -0.000039
 1         -2.057500    3.517296   -0.000195

