#N B3LYP/aug-cc-pVDZ OPT 

2Naph

-1 1 
 7          1.908332    2.849266   -0.359919
 6          1.398535    1.763188   -0.277728
 6          0.798536    0.448578   -0.156133
 6          1.583784   -0.755221   -0.065383
 6          1.049118   -2.057942   -0.337160
 6         -0.340914   -2.129089   -0.390434
 6         -1.220195   -1.017623   -0.059831
 6         -0.645192    0.317456   -0.050984
 6         -1.524370    1.446684    0.083024
 6         -2.896427    1.277817    0.235694
 6         -3.462550   -0.031680    0.252118
 6         -2.638955   -1.145961    0.116422
 7          4.161658   -0.579778    0.620195
 6          3.001002   -0.639422    0.319367
 1         -0.845852   -3.046711   -0.738005
 1         -1.086065    2.453921    0.080223
 1         -3.549759    2.153208    0.345779
 1         -4.548352   -0.152521    0.360077
 1         -3.074143   -2.155021    0.116150

