#N B3LYP/aug-cc-pVDZ OPT 

2Naph

-1 1 
 7         -1.634409    3.447292   -0.000022
 6         -1.547255    2.249863   -0.000009
 6         -1.601870    0.778040   -0.000002
 6         -2.850690    0.134768    0.000009
 6         -2.904517   -1.287669    0.000022
 6         -1.729596   -2.033598    0.000018
 6         -0.439925   -1.397596   -0.000001
 6         -0.342558    0.056540   -0.000002
 6          0.895426    0.878708    0.000006
 6          2.018961   -0.016417   -0.000004
 6          1.991007   -1.464690   -0.000032
 6          0.787938   -2.149777   -0.000026
 7          4.471310    1.056658    0.000033
 6          3.371762    0.576643    0.000014
 1         -3.777974    0.721984    0.000009
 1         -3.880822   -1.790232    0.000038
 1         -1.779778   -3.132152    0.000029
 1          2.936243   -2.030047   -0.000064
 1          0.751931   -3.246091   -0.000042

