#N B3LYP/aug-cc-pVDZ OPT 

2Naph

-1 1 
 7          4.224690   -0.463619   -0.016791
 6          3.026915   -0.542741   -0.004455
 6          0.731412    0.464013    0.028840
 6          1.573583   -0.682016    0.010012
 6          0.989276   -1.991528   -0.012676
 6         -0.395811   -2.132551   -0.010258
 6         -1.319006   -1.024977    0.018739
 6         -0.714451    0.319556    0.043241
 6         -1.592472    1.446208    0.021312
 6         -2.967728    1.216213   -0.039064
 6         -3.501994   -0.107520   -0.031067
 6         -2.767251   -1.330109    0.031446
 7          1.807670    2.898009   -0.010659
 6          1.334599    1.794034   -0.003494
 1          1.652562   -2.864967   -0.035975
 1         -0.832025   -3.142319   -0.040997
 1         -1.178895    2.461385    0.042785
 1         -3.643870    2.086866   -0.055657
 1         -4.606719   -0.153182   -0.033455

