#N B3LYP/aug-cc-pVDZ OPT 

2Naph

-1 1 
 7          1.520304    3.461469   -0.218112
 6          1.584335    2.268070   -0.106425
 6          1.699970    0.807355    0.052742
 6          3.004873    0.250069    0.116036
 6          2.954857   -1.205427    0.181759
 6          1.826953   -1.991614   -0.059932
 6          0.523103   -1.387766   -0.070298
 6          0.438782    0.057691    0.069633
 6         -0.856680    0.656837    0.139394
 6         -2.031837   -0.113528    0.029922
 6         -1.938331   -1.543823   -0.119590
 6         -0.693548   -2.151302   -0.163902
 7         -4.430949    1.032468    0.102292
 6         -3.345456    0.521657    0.064837
 1          3.895433   -1.751584    0.383371
 1          1.888447   -3.084552   -0.171029
 1         -0.930858    1.747124    0.258285
 1         -2.859393   -2.135271   -0.195908
 1         -0.621237   -3.242597   -0.269038

