#N B3LYP/aug-cc-pVDZ OPT 

2Naph

-1 1 
 7         -4.435974    1.063213   -0.313059
 6         -3.380140    0.518381   -0.144725
 6         -0.937534    0.649998    0.161018
 6         -2.090245   -0.169045    0.076946
 6         -2.108127   -1.617876    0.227532
 6         -0.810836   -2.161135    0.207245
 6          0.413024   -1.418067    0.001453
 6          0.347445    0.040785    0.063457
 6          1.594910    0.790545    0.005518
 6          2.830613    0.127850   -0.116153
 6          2.879619   -1.289416   -0.183307
 6          1.700276   -2.035311   -0.144329
 7          1.604728    3.448851    0.122490
 6          1.582531    2.249906    0.066110
 1         -1.003552    1.743927    0.244732
 1         -0.663644   -3.239844    0.392373
 1          3.757585    0.714231   -0.158774
 1          3.852709   -1.790424   -0.264793
 1          1.746413   -3.132032   -0.204148

