#N B3LYP/aug-cc-pVDZ OPT 

2Naph

-1 1 
 7          0.626074    3.849682    0.061339
 6          0.330474    2.686252    0.043611
 6         -0.076680    1.282465    0.020363
 6         -1.449452    0.991421   -0.009061
 6         -1.903080   -0.367035   -0.005045
 6         -0.953591   -1.416649    0.008094
 6          0.443732   -1.156192    0.017766
 6          0.934397    0.223839    0.016211
 6          2.340932    0.450262   -0.098278
 6          3.357463   -0.547765   -0.139664
 6          2.785930   -1.879170    0.085568
 6          1.434191   -2.204196    0.043656
 7         -4.507008   -0.896305   -0.033604
 6         -3.330859   -0.656720   -0.021124
 1         -2.185247    1.805948   -0.033932
 1         -1.304868   -2.458066    0.010563
 1          2.617453    1.511367   -0.230344
 1          3.481457   -2.726926    0.234890
 1          1.076999   -3.245020    0.052088

