#N B3LYP/aug-cc-pVDZ OPT 

2Naph

-1 1 
 7         -4.217315   -0.850610   -0.081977
 6         -3.138969   -0.324223   -0.054532
 6         -1.847122    0.359966   -0.023989
 6         -1.832929    1.772214   -0.003562
 6         -0.601018    2.468106    0.014156
 6          0.605807    1.762658    0.022630
 6          0.637517    0.332573    0.010796
 6         -0.617918   -0.409780    0.006718
 6         -0.558152   -1.845323    0.195847
 6          0.615769   -2.600705    0.094054
 6          1.792399   -1.844763   -0.197554
 6          1.875435   -0.434243   -0.022459
 7          4.232927    0.783514    0.024651
 6          3.153560    0.253939    0.018956
 1         -2.781319    2.324732    0.006897
 1         -0.598535    3.565414    0.024660
 1          1.560729    2.306006    0.032212
 1         -1.507992   -2.312728    0.507458
 1          2.711561   -2.356270   -0.536306

