#N B3LYP/aug-cc-pVDZ OPT 

2Naph

-1 1 
 7         -5.168429    0.374155   -0.000019
 6         -3.982424    0.188041    0.000015
 6         -1.631151    0.972507    0.000036
 6         -2.543889   -0.102689    0.000084
 6         -2.079764   -1.468368    0.000047
 6         -0.721669   -1.913936   -0.000047
 6          0.172430   -0.728704   -0.000065
 6         -0.238339    0.679023    0.000016
 6          0.758786    1.728990   -0.000012
 6          2.108637    1.440601   -0.000052
 6          2.548670    0.062652   -0.000005
 6          1.593059   -0.968178   -0.000041
 7          5.153023   -0.475862    0.000061
 6          3.976860   -0.237367    0.000029
 1         -1.980792    2.011969   -0.000032
 1         -2.891768   -2.217187   -0.000134
 1          0.423766    2.776184   -0.000031
 1          2.859484    2.241437   -0.000102
 1          1.929917   -2.015882   -0.000036

