#N B3LYP/aug-cc-pVDZ OPT 

2Naph

-1 1 
 7         -2.958197   -1.832703   -0.495214
 6         -1.812027   -1.565664   -0.257561
 6         -0.372728   -1.392913    0.013939
 6          0.364931   -2.606333    0.135120
 6          1.793121   -2.352505    0.290127
 6          2.415569   -1.133066    0.049549
 6          1.630394    0.073342   -0.045006
 6          0.178071   -0.040142    0.032360
 6         -0.573950    1.203004    0.055844
 6          0.072355    2.452001   -0.074815
 6          1.481703    2.531203   -0.189609
 6          2.241363    1.362267   -0.164661
 7         -3.197270    1.438777    0.430939
 6         -2.026290    1.251773    0.243035
 1          2.453346   -3.203994    0.538940
 1          3.509303   -1.032615   -0.017017
 1         -0.531813    3.368681   -0.083691
 1          1.965376    3.511156   -0.286796
 1          3.336990    1.416456   -0.231437

