#N B3LYP/aug-cc-pVDZ OPT 

2Naph

-1 1 
 7          4.536457   -0.923241   -0.001062
 6          3.355454   -0.712902    0.000586
 6          1.034358   -1.628413    0.000161
 6          1.897948   -0.470110    0.000536
 6          1.512363    0.911755    0.000609
 6          0.157489    1.276794    0.000204
 6         -0.848005    0.221213   -0.000031
 6         -0.383882   -1.156366   -0.000076
 6         -1.411356   -2.169883   -0.000079
 6         -2.771149   -1.872364   -0.000105
 6         -3.195548   -0.510692   -0.000098
 6         -2.254765    0.512303   -0.000057
 7         -0.538592    3.839403   -0.000299
 6         -0.228965    2.679261   -0.000151
 1          2.275487    1.706040    0.000725
 1         -1.076560   -3.217575   -0.000014
 1         -3.521067   -2.674042   -0.000073
 1         -4.268152   -0.273666   -0.000101
 1         -2.578420    1.562538   -0.000007

