#N B3LYP/aug-cc-pVDZ OPT 

2Naph

-1 1 
 7          4.203971   -0.533806   -0.067858
 6          3.003903   -0.586510   -0.043063
 6          0.725277    0.475864    0.037260
 6          1.554257   -0.691804    0.002143
 6          0.943283   -1.989587    0.007407
 6         -0.439299   -2.116116    0.013586
 6         -1.307827   -0.968407    0.000770
 6         -0.717929    0.372912    0.001547
 6         -1.607654    1.499004   -0.175004
 6         -3.008142    1.417036   -0.134520
 6         -3.510139    0.091107    0.120291
 6         -2.734005   -1.072436    0.009697
 7          1.884252    2.868144    0.132045
 6          1.356660    1.789885    0.088856
 1          1.588854   -2.876897   -0.001383
 1         -0.893110   -3.116534    0.020144
 1         -1.106399    2.449765   -0.424472
 1         -4.577732   -0.044472    0.374727
 1         -3.179484   -2.077923    0.007848

