#N B3LYP/aug-cc-pVDZ OPT 

2Naph

-1 1 
 7          4.462594    1.057872    0.000975
 6          3.366996    0.567108    0.000633
 6          0.891297    0.689017   -0.000376
 6          2.059154   -0.099378   -0.000161
 6          1.983417   -1.540619   -0.000354
 6          0.798360   -2.334043   -0.001065
 6         -0.386113   -1.439110   -0.000518
 6         -0.370136    0.028323   -0.000546
 6         -1.632464    0.762659    0.000024
 6         -2.858318    0.080288    0.000906
 6         -2.885383   -1.341156    0.000962
 6         -1.688845   -2.057979    0.000000
 7         -1.658586    3.425366   -0.000620
 6         -1.640944    2.225146   -0.000408
 1          0.945257    1.784046   -0.000427
 1          2.968116   -2.040948    0.000392
 1         -3.797062    0.650685    0.001497
 1         -3.852467   -1.859695    0.001725
 1         -1.714027   -3.158286   -0.000258

