#N B3LYP/aug-cc-pVDZ OPT 

2Naph

-1 1 
 7         -4.506977   -0.896289   -0.033707
 6         -3.330828   -0.656760   -0.021234
 6         -0.953543   -1.416632    0.008152
 6         -1.903090   -0.367029   -0.005014
 6         -1.449470    0.991401   -0.008987
 6         -0.076697    1.282446    0.020419
 6          0.934402    0.223869    0.016189
 6          0.443712   -1.156170    0.017838
 6          1.434201   -2.204180    0.043733
 6          2.785901   -1.879195    0.085597
 6          3.357474   -0.547733   -0.139807
 6          2.340896    0.450280   -0.098389
 7          0.626077    3.849643    0.061299
 6          0.330450    2.686232    0.043759
 1         -1.304842   -2.458044    0.010540
 1         -2.185266    1.805935   -0.033724
 1          1.076977   -3.245003    0.052255
 1          3.481500   -2.726850    0.234989
 1          2.617479    1.511315   -0.230737

