#N B3LYP/aug-cc-pVDZ OPT 

2Naph

-1 1 
 7         -4.186224   -0.816737    0.271873
 6         -3.143769   -0.235253    0.145985
 6         -1.882026    0.506819   -0.031288
 6         -1.948236    1.926650   -0.053339
 6         -0.613204    2.505875   -0.175580
 6          0.591915    1.823768   -0.010629
 6          0.606799    0.386808   -0.012839
 6         -0.666736   -0.309284   -0.103229
 6         -0.659085   -1.739466   -0.176064
 6          0.528072   -2.474818   -0.121948
 6          1.776217   -1.810389   -0.026691
 6          1.824054   -0.403108    0.025682
 7          4.207302    0.770749    0.192885
 6          3.126083    0.255487    0.114591
 1         -0.532844    3.594424   -0.354401
 1          1.556615    2.347625    0.057315
 1         -1.623793   -2.260144   -0.256577
 1          0.502266   -3.571643   -0.153059
 1          2.709701   -2.386888    0.005516

