#N B3LYP/aug-cc-pVDZ OPT 

2Naph

-1 1 
 7          4.224516   -0.458901   -0.000015
 6          3.026255   -0.533312    0.000113
 6          0.714435    0.460177    0.000142
 6          1.575744   -0.669375    0.000014
 6          0.987582   -1.986863   -0.000289
 6         -0.388078   -2.142318   -0.000301
 6         -1.279727   -1.006351    0.000149
 6         -0.724697    0.350862    0.000086
 6         -1.466666    1.632392   -0.000263
 6         -2.868501    1.332881   -0.000609
 6         -3.469237    0.039848    0.000248
 6         -2.699613   -1.129238    0.000549
 7          1.839971    2.882784    0.000281
 6          1.264678    1.827401   -0.000002
 1          1.653395   -2.859617   -0.000589
 1         -0.817477   -3.154783   -0.000671
 1         -3.588490    2.171344   -0.001357
 1         -4.567549   -0.057909    0.000802
 1         -3.164331   -2.122849    0.000928

