#N B3LYP/aug-cc-pVDZ OPT 

2Naph

-1 1 
 7          4.770404   -1.554476    0.129455
 6          3.743250   -0.938866    0.058716
 6          1.301988   -0.921053   -0.094706
 6          2.484010   -0.161362   -0.032577
 6          2.613827    1.312702   -0.085919
 6          1.307418    1.888701   -0.062045
 6          0.049680    1.205857    0.010731
 6          0.034750   -0.251928   -0.049711
 6         -1.215125   -0.947891   -0.053161
 6         -2.434526   -0.253680    0.009158
 6         -2.427778    1.192406    0.074291
 6         -1.230088    1.881692    0.081851
 7         -4.748238   -1.562652    0.005651
 6         -3.702120   -0.974350    0.007404
 1          1.316938   -2.019357   -0.160179
 1          1.213887    2.988631   -0.118367
 1         -1.216868   -2.046220   -0.100715
 1         -3.387457    1.723845    0.116319
 1         -1.233371    2.979640    0.133002

