#N B3LYP/aug-cc-pVDZ OPT 

2Naph

-1 1 
 7         -4.426993    1.125030    0.000071
 6         -3.355169    0.585873   -0.000003
 6         -0.868930    0.663904    0.000008
 6         -2.055355   -0.085151   -0.000013
 6         -1.992230   -1.525131   -0.000048
 6         -0.754241   -2.151877   -0.000044
 6          0.506257   -1.441881   -0.000004
 6          0.410649    0.017604    0.000000
 6          1.650223    0.772938   -0.000004
 6          2.864027    0.050570    0.000005
 6          2.880176   -1.366720    0.000044
 6          1.752525   -2.260094    0.000031
 7          1.671715    3.426227   -0.000040
 6          1.651194    2.225081   -0.000007
 1         -0.917521    1.762435    0.000030
 1         -2.926508   -2.100330   -0.000076
 1         -0.703031   -3.250816   -0.000066
 1          3.804685    0.625063   -0.000001
 1          3.894564   -1.805850    0.000110

