#N B3LYP/aug-cc-pVDZ OPT 

2Naph

-1 1 
 7          3.417607   -2.451184    0.000701
 6          2.778645   -1.435155    0.000390
 6          2.010740   -0.190080    0.000113
 6          2.703959    1.033150    0.000261
 6          1.988180    2.257713    0.000005
 6          0.590877    2.244063   -0.000231
 6         -0.191318    1.036544   -0.000251
 6          0.555287   -0.221326   -0.000302
 6         -0.185832   -1.449596   -0.000843
 6         -1.572156   -1.394401   -0.000918
 6         -2.261078   -0.125506   -0.000228
 6         -1.675900    1.188247   -0.000099
 7         -4.933957   -0.274554    0.001019
 6         -3.735806   -0.212537    0.000493
 1          3.802426    1.033841    0.000603
 1          2.541329    3.205358    0.000059
 1          0.036572    3.194806   -0.000322
 1          0.348509   -2.407017   -0.001241
 1         -2.147963   -2.333513   -0.001478

