#N B3LYP/aug-cc-pVDZ OPT 

2Naph

-1 1 
 7         -3.584600   -2.082300   -0.027771
 6         -2.559803   -1.456523   -0.021643
 6         -0.076292   -1.418553   -0.058684
 6         -1.298943   -0.726358   -0.026261
 6         -1.293320    0.731040    0.003759
 6         -0.066656    1.412585    0.021762
 6          1.185734    0.718485    0.014838
 6          1.190169   -0.745503   -0.016373
 6          2.456865   -1.422909    0.107541
 6          3.732147   -0.810824    0.058410
 6          3.626781    0.630880   -0.114999
 6          2.454310    1.385201    0.012521
 7         -3.565657    2.109210    0.032921
 6         -2.546654    1.474925    0.019659
 1         -0.089430   -2.517154   -0.095204
 1         -0.067991    2.511478    0.044325
 1          2.372722   -2.509057    0.293233
 1          4.549169    1.206600   -0.322269
 1          2.461297    2.485107    0.040693

