#N B3LYP/aug-cc-pVDZ OPT 

2Naph

-1 1 
 7          1.884108    2.868296   -0.131225
 6          1.356682    1.789921   -0.088388
 6          0.725334    0.475864   -0.037363
 6          1.554235   -0.691835   -0.002199
 6          0.943365   -1.989599   -0.007148
 6         -0.439277   -2.116087   -0.013232
 6         -1.307748   -0.968437   -0.000694
 6         -0.717957    0.373027   -0.001759
 6         -1.607718    1.498951    0.174439
 6         -3.008312    1.417069    0.134104
 6         -3.510127    0.090949   -0.120275
 6         -2.733935   -1.072516   -0.009574
 7          4.204026   -0.533886    0.067339
 6          3.003939   -0.586369    0.042608
 1          1.588838   -2.876968    0.001913
 1         -0.893043   -3.116536   -0.019376
 1         -1.106599    2.449922    0.423425
 1         -4.577784   -0.044810   -0.374340
 1         -3.179233   -2.078099   -0.007528

