#N B3LYP/aug-cc-pVDZ OPT 

2Naph

-1 1 
 7          1.815529    2.909349    0.000109
 6          1.343599    1.804568    0.000067
 6          0.757055    0.476306    0.000032
 6          1.574929   -0.691349    0.000086
 6          0.986820   -1.999724    0.000052
 6         -0.409359   -2.323381   -0.000081
 6         -1.201515   -1.064579    0.000021
 6         -0.680311    0.296635   -0.000004
 6         -1.582318    1.420687   -0.000108
 6         -2.956161    1.232552   -0.000098
 6         -3.498609   -0.090312    0.000031
 6         -2.643302   -1.185167    0.000065
 7          4.235181   -0.515792   -0.000129
 6          3.034912   -0.549018   -0.000036
 1          1.726990   -2.819317    0.000095
 1         -1.161072    2.435729   -0.000172
 1         -3.632360    2.098167   -0.000218
 1         -4.587814   -0.227746    0.000122
 1         -3.055168   -2.205052    0.000147

