#N B3LYP/aug-cc-pVDZ OPT 

2Naph

-1 1 
 7         -4.471358    1.055967   -0.000413
 6         -3.371721    0.576112   -0.000039
 6         -0.895371    0.878512    0.000340
 6         -2.018816   -0.016758    0.000205
 6         -1.990588   -1.465075    0.000028
 6         -0.787451   -2.149974    0.000098
 6          0.440344   -1.397659    0.000204
 6          0.342654    0.056493    0.000127
 6          1.601808    0.778322    0.000009
 6          2.850755    0.135340   -0.000255
 6          2.904847   -1.287109   -0.000205
 6          1.730132   -2.033340    0.000026
 7          1.632614    3.447670    0.000122
 6          1.546491    2.250142   -0.000014
 1         -2.935726   -2.030586   -0.000216
 1         -0.751324   -3.246305    0.000071
 1          3.777903    0.722759   -0.000475
 1          3.881251   -1.789487   -0.000480
 1          1.780584   -3.131885   -0.000006

