#N B3LYP/aug-cc-pVDZ OPT 

2Naph

-1 1 
 7          1.781284    3.391303    0.062076
 6          1.713411    2.191202    0.042603
 6          1.693387    0.739302   -0.015757
 6          2.887455   -0.013779   -0.186702
 6          2.992862   -1.423337    0.066446
 6          1.751133   -2.075529    0.144895
 6          0.466258   -1.430218   -0.021162
 6          0.422268    0.026396    0.003935
 6         -0.843936    0.684877    0.020003
 6         -2.048095   -0.047059   -0.007964
 6         -2.008035   -1.485275   -0.043866
 6         -0.785129   -2.141347   -0.059814
 7         -4.400281    1.193863    0.009373
 6         -3.335508    0.640361    0.001568
 1          3.784044    0.557980   -0.489224
 1          1.695774   -3.145310    0.414014
 1         -0.874203    1.782990    0.045517
 1         -2.951589   -2.045794   -0.052792
 1         -0.757470   -3.239597   -0.082779

