#N B3LYP/aug-cc-pVDZ OPT 

2Naph

-1 1 
 7         -0.850847    3.792656   -0.075697
 6         -0.416606    2.674278   -0.046175
 6          0.146895    1.310040   -0.003773
 6          1.575030    1.210724   -0.018115
 6          1.946294   -0.223123   -0.016960
 6          1.086451   -1.328173   -0.110831
 6         -0.335782   -1.134114   -0.062318
 6         -0.828756    0.224872    0.032333
 6         -2.254623    0.415572    0.122094
 6         -3.133361   -0.659082    0.098849
 6         -2.639347   -1.998301   -0.004300
 6         -1.272791   -2.225691   -0.083032
 7          4.566434   -0.778969    0.110811
 6          3.393381   -0.534835    0.054432
 1          1.472341   -2.355045   -0.199625
 1         -2.636634    1.442950    0.199177
 1         -4.216696   -0.488032    0.156783
 1         -3.345842   -2.838082   -0.019036
 1         -0.882989   -3.250601   -0.156325

