#N B3LYP/aug-cc-pVDZ OPT 

2Naph

-1 1 
 7         -3.296755   -1.302448    0.078518
 6         -2.099647   -1.193447    0.044179
 6         -0.649105   -1.247454   -0.022542
 6         -0.017077   -2.516914   -0.226511
 6          1.353602   -2.761046    0.056504
 6          2.139941   -1.619897    0.184845
 6          1.639180   -0.266079   -0.013922
 6          0.188640   -0.063848   -0.001255
 6         -0.294482    1.306522    0.001145
 6          0.608283    2.395245   -0.021791
 6          2.003661    2.180291   -0.044316
 6          2.500025    0.872383   -0.056061
 7         -2.839126    2.075810    0.026296
 6         -1.714583    1.654591    0.012884
 1         -0.667223   -3.331421   -0.593883
 1          3.188198   -1.680137    0.525684
 1          0.207280    3.417147   -0.022628
 1          2.686971    3.038756   -0.048112
 1          3.585317    0.700043   -0.073710

