#N B3LYP/aug-cc-pVDZ OPT 

2Naph

-1 1 
 7          3.892401    2.015966    1.230640
 6          3.250188    1.315170    0.484501
 6          1.422898    0.213662   -1.064168
 6          2.630340    0.474325   -0.468328
 6          2.288207   -1.031309   -0.802672
 6          1.421835   -1.871631    0.073760
 6          0.141836   -1.315260    0.134587
 6          0.058960   -0.001969   -0.575376
 6         -1.124247    0.735962   -0.621300
 6         -2.300486    0.238477    0.015270
 6         -2.247141   -1.044256    0.686107
 6         -1.088323   -1.793410    0.748514
 7         -4.563711    1.611879   -0.042005
 6         -3.533640    0.992354   -0.013833
 1          2.915406   -1.501026   -1.580191
 1          1.690723   -2.863594    0.445754
 1         -1.164794    1.694550   -1.157463
 1         -3.169782   -1.423704    1.146656
 1         -1.094957   -2.773832    1.242415

