#N B3LYP/aug-cc-pVDZ OPT 

2Naph

-1 1 
 7          4.918112   -0.244430   -0.000264
 6          3.718232   -0.226442   -0.000158
 6          1.547968    1.003584   -0.000378
 6          2.258829   -0.210806   -0.000011
 6          1.528357   -1.455168    0.000537
 6          0.145461   -1.441854    0.000616
 6         -0.594195   -0.202742    0.000159
 6          0.111946    1.077640   -0.000194
 6         -0.494470    2.441668   -0.000157
 6         -1.929780    2.298588    0.000444
 6         -2.674822    1.098852    0.000143
 6         -2.038196   -0.168040    0.000006
 7         -3.487279   -2.391102   -0.000583
 6         -2.823792   -1.389924   -0.000318
 1          2.102460    1.954125   -0.000700
 1          2.083097   -2.402630    0.000928
 1         -0.412200   -2.388998    0.001064
 1         -2.545425    3.216109    0.000690
 1         -3.776985    1.117981   -0.000177

