#N B3LYP/aug-cc-pVDZ OPT 

2Naph

-1 1 
 7          4.100147   -0.928761    0.094929
 6          2.901117   -0.866095    0.060738
 6          1.443370   -0.840651    0.015514
 6          0.749715   -2.077517   -0.037280
 6         -0.655237   -2.106752   -0.031656
 6         -1.398132   -0.899928   -0.007019
 6         -0.730164    0.388535    0.003546
 6          0.734660    0.425295    0.008838
 6          1.378140    1.707848   -0.140179
 6          0.710003    2.943720   -0.128845
 6         -0.705132    2.832370    0.131436
 6         -1.428582    1.637464    0.029802
 7         -4.051338   -1.064206   -0.001889
 6         -2.853381   -0.974396    0.000500
 1          1.317678   -3.015559   -0.078496
 1         -1.185399   -3.067171   -0.052842
 1          2.458747    1.655794   -0.357296
 1         -1.283373    3.743675    0.371503
 1         -2.527577    1.614674    0.033480

