#N B3LYP/aug-cc-pVDZ OPT 

2Naph

-1 1 
 7         -4.235276   -0.515640   -0.000088
 6         -3.035010   -0.549025   -0.000024
 6         -0.757088    0.476324    0.000056
 6         -1.575006   -0.691287    0.000113
 6         -0.986950   -1.999702    0.000269
 6          0.409218   -2.323400   -0.000068
 6          1.201441   -1.064623   -0.000097
 6          0.680292    0.296572    0.000120
 6          1.582338    1.420606    0.000303
 6          2.956180    1.232416    0.000176
 6          3.498587   -0.090463   -0.000156
 6          2.643230   -1.185275   -0.000296
 7         -1.814872    2.909666   -0.000258
 6         -1.343593    1.804607   -0.000104
 1         -1.727188   -2.819240    0.000556
 1          1.161124    2.435658    0.000556
 1          3.632424    2.097996    0.000336
 1          4.587791   -0.227919   -0.000279
 1          3.055042   -2.205179   -0.000504

