#N B3LYP/aug-cc-pVDZ OPT 

2Naph

-1 1 
 7         -3.548988   -2.322012   -0.084056
 6         -2.856342   -1.339791   -0.052277
 6         -2.065496   -0.124741    0.016476
 6         -2.668980    1.153844    0.251116
 6         -1.999396    2.370227   -0.031170
 6         -0.622055    2.293657   -0.195877
 6          0.132814    1.058632    0.002594
 6         -0.618435   -0.193835   -0.012685
 6          0.112419   -1.434110   -0.024162
 6          1.499255   -1.462928   -0.004628
 6          2.248021   -0.234623    0.025536
 6          1.555295    0.996741    0.045236
 7          4.904908   -0.297268    0.032333
 6          3.704692   -0.268521    0.024054
 1         -3.697596    1.154403    0.654122
 1         -0.036142    3.151201   -0.569074
 1         -0.454996   -2.374408   -0.040981
 1          2.039244   -2.418459   -0.013049
 1          2.127306    1.934917    0.065766

