#N B3LYP/aug-cc-pVDZ OPT 

2Naph

-1 1 
 7          4.532517   -0.835631    0.000118
 6          3.353970   -0.611012    0.000022
 6          0.995428   -1.399146   -0.000095
 6          1.917964   -0.337951   -0.000052
 6          1.449706    1.023390    0.000026
 6          0.071386    1.266545   -0.000022
 6         -0.931407    0.214940   -0.000066
 6         -0.417571   -1.159443   -0.000144
 6         -1.379533   -2.222202   -0.000042
 6         -2.731959   -1.887054    0.000149
 6         -3.164534   -0.522215    0.000086
 6         -2.342592    0.648822   -0.000116
 7         -0.693547    3.826024    0.000037
 6         -0.427030    2.654849    0.000001
 1          1.369792   -2.433644   -0.000017
 1          2.173895    1.847457    0.000081
 1         -1.040653   -3.265574   -0.000147
 1         -3.475525   -2.700891    0.000288
 1         -4.263259   -0.397239    0.000234

