#N B3LYP/aug-cc-pVDZ OPT 

2Naph

-1 1 
 7         -4.400411    1.193650    0.009211
 6         -3.335495    0.640370    0.001873
 6         -0.843805    0.684869    0.020000
 6         -2.048047   -0.046911   -0.007943
 6         -2.008065   -1.485101   -0.043965
 6         -0.785140   -2.141334   -0.059867
 6          0.466230   -1.430209   -0.021128
 6          0.422338    0.026332    0.003829
 6          1.693390    0.739240   -0.015702
 6          2.887397   -0.013766   -0.186827
 6          2.992861   -1.423457    0.066289
 6          1.751218   -2.075512    0.145076
 7          1.781280    3.391387    0.061825
 6          1.713361    2.191223    0.042983
 1         -0.874298    1.783020    0.045598
 1         -2.951496   -2.045844   -0.052919
 1         -0.757807   -3.239603   -0.082768
 1          3.784084    0.558034   -0.488860
 1          1.695970   -3.145324    0.413982

