#N B3LYP/aug-cc-pVDZ OPT 

2Naph

-1 1 
 7         -0.693517    3.826005    0.000026
 6         -0.427252    2.654760   -0.000029
 6          0.071358    1.266529   -0.000022
 6          1.449701    1.023403    0.000030
 6          1.917926   -0.337940    0.000040
 6          0.995479   -1.399191    0.000040
 6         -0.417585   -1.159535    0.000186
 6         -0.931316    0.214863    0.000046
 6         -2.342492    0.648834    0.000071
 6         -3.164510   -0.522176   -0.000152
 6         -2.731982   -1.886962   -0.000115
 6         -1.379549   -2.222204    0.000137
 7          4.532559   -0.835450   -0.000133
 6          3.353959   -0.611070   -0.000034
 1          2.173897    1.847464    0.000035
 1          1.369919   -2.433666   -0.000123
 1         -4.263214   -0.397092   -0.000395
 1         -3.475518   -2.700842   -0.000228
 1         -1.040803   -3.265618    0.000269

