#N B3LYP/aug-cc-pVDZ OPT 

2Naph

-1 1 
 7          4.532667   -0.781147   -0.015636
 6          3.350204   -0.572188   -0.016124
 6          0.991776   -1.400004   -0.069900
 6          1.915804   -0.322359   -0.029235
 6          1.427984    1.021740   -0.003915
 6          0.046915    1.276135    0.010681
 6         -0.925372    0.185231    0.010286
 6         -0.412952   -1.191107   -0.022485
 6         -1.381056   -2.264366    0.149968
 6         -2.763165   -2.086854    0.067363
 6         -3.178490   -0.735985   -0.163675
 6         -2.333476    0.381351    0.009186
 7         -0.762781    3.809817    0.054109
 6         -0.407988    2.663010    0.030920
 1          1.375146   -2.429107   -0.112678
 1          2.140034    1.857125    0.007003
 1         -0.945936   -3.239064    0.431711
 1         -4.220633   -0.527576   -0.469079
 1         -2.718926    1.410319    0.035320

