#N B3LYP/aug-cc-pVDZ OPT 

2Naph

-1 1 
 7          4.910293   -0.286587   -0.277260
 6          3.719797   -0.294642   -0.128537
 6          1.614090    0.941850    0.125200
 6          2.252431   -0.313507    0.064474
 6          1.604511   -1.620007    0.226731
 6          0.193973   -1.483409    0.215779
 6         -0.544723   -0.262030    0.049867
 6          0.184420    1.003201    0.075219
 6         -0.539488    2.241913    0.037687
 6         -1.930718    2.270609   -0.031688
 6         -2.665949    1.054720   -0.066671
 6         -1.997783   -0.183771   -0.044976
 7         -3.494897   -2.383013   -0.149222
 6         -2.799087   -1.406170   -0.100560
 1          2.180197    1.883225    0.179550
 1         -0.435490   -2.376517    0.374281
 1          0.029299    3.182258    0.059672
 1         -2.467608    3.227044   -0.057078
 1         -3.763014    1.078652   -0.106205

