#N B3LYP/aug-cc-pVDZ OPT 

2Naph

-1 1 
 7          4.776330   -1.541473    0.000169
 6          3.725385   -0.962232   -0.000093
 6          1.229871   -0.947570   -0.000043
 6          2.452057   -0.248732   -0.000058
 6          2.442168    1.194148   -0.000050
 6          1.236871    1.872893   -0.000022
 6         -0.024011    1.170140    0.000001
 6         -0.049011   -0.291771   -0.000019
 6         -1.259374   -1.164729   -0.000020
 6         -2.420980   -0.312003    0.000010
 6         -2.454661    1.130813    0.000056
 6         -1.277564    1.867092    0.000048
 7         -4.817349   -1.505179   -0.000012
 6         -3.744867   -0.967383   -0.000002
 1          1.236469   -2.047989   -0.000050
 1          3.396937    1.736180   -0.000066
 1          1.230339    2.972183   -0.000013
 1         -3.421785    1.658303    0.000099
 1         -1.290134    2.963896    0.000077

